########## Number      : 1
########## Source num  : 22
########## Name        : test_22
########## Description : ribose-monophosphate
########## Reflect     : 0
########## Energy score                             :     -42.64
##########   intermolecular van der Waals                 -21.10
##########   intermolecular electrostatic                 -21.54
########## RMSD from input orientation (A)          :      40.86

@<TRIPOS>MOLECULE
test_22
22    22    1     0     0    
SMALL
GASTEIGER
****

ribose-monophosphate
@<TRIPOS>ATOM
1     C1       9.4819   36.0139   21.8847 C.3     1 RIBOSE_MONOPHOSPHATE   0.0767
2     C2       9.5290   35.9454   20.3435 C.3     1 RIBOSE_MONOPHOSPHATE   0.1068
3     C3       8.0308   35.9499   19.9512 C.3     1 RIBOSE_MONOPHOSPHATE   0.1114
4     C4       7.3171   35.5046   21.2597 C.3     1 RIBOSE_MONOPHOSPHATE   0.1106
5     C5       6.3529   34.3130   21.0583 C.3     1 RIBOSE_MONOPHOSPHATE   0.0808
6     O1       8.3826   35.1347   22.1488 O.3     1 RIBOSE_MONOPHOSPHATE  -0.3690
7     O2      10.2856   37.0060   19.7388 O.3     1 RIBOSE_MONOPHOSPHATE  -0.3869
8     O3       7.6440   37.2832   19.5752 O.3     1 RIBOSE_MONOPHOSPHATE  -0.3865
9     O4       7.0938   33.1941   20.5563 O.3     1 RIBOSE_MONOPHOSPHATE  -0.3528
10    P1       6.4305   31.7764   20.2206 P.3     1 RIBOSE_MONOPHOSPHATE   0.0428
11    O5       5.3874   31.9566   19.1717 O.co2   1 RIBOSE_MONOPHOSPHATE  -0.5430
12    O6       7.5661   30.7801   19.6910 O.3     1 RIBOSE_MONOPHOSPHATE  -0.7967
13    O7       5.8050   31.2201   21.4533 O.co2   1 RIBOSE_MONOPHOSPHATE  -0.5430
14    H1       9.2496   37.0325   22.2365 H       1 RIBOSE_MONOPHOSPHATE   0.0586
15    H2      10.4103   35.6654   22.3630 H       1 RIBOSE_MONOPHOSPHATE   0.0586
16    H3       9.9862   34.9824   20.0577 H       1 RIBOSE_MONOPHOSPHATE   0.0643
17    H4       7.8573   35.2642   19.1030 H       1 RIBOSE_MONOPHOSPHATE   0.0647
18    H5       6.7782   36.3565   21.7090 H       1 RIBOSE_MONOPHOSPHATE   0.0646
19    H6       5.5599   34.5881   20.3449 H       1 RIBOSE_MONOPHOSPHATE   0.0590
20    H7       5.8930   34.0403   22.0214 H       1 RIBOSE_MONOPHOSPHATE   0.0590
21    H8       9.9227   37.8616   19.9411 H       1 RIBOSE_MONOPHOSPHATE   0.2100
22    H9       6.7213   37.3406   19.3480 H       1 RIBOSE_MONOPHOSPHATE   0.2100
@<TRIPOS>BOND
1     1     2     1
2     1     6     1
3     2     3     1
4     2     7     1
5     3     4     1
6     3     8     1
7     4     5     1
8     4     6     1
9     5     9     1
10    9     10    1
11    10    11    ar
12    10    12    1
13    10    13    ar
14    1     14    1
15    1     15    1
16    2     16    1
17    3     17    1
18    4     18    1
19    5     19    1
20    5     20    1
21    7     21    1
22    8     22    1
@<TRIPOS>SUBSTRUCTURE
1   RIBOSE_MONOPHOSPHATE 1     PERM       0   ****  **** 


